LAMMPS (23 Jun 2022 - Update 1)
####################################################
# Preprocessing Li2SO4 in water
#################### SETTING UP ####################
units real
dimension 3
newton on
boundary p p p
atom_style full

#################### VARIABLES ####################
variable Temp equal 323.15    # Temperature in K
variable Pres equal 1.0       # Pressure in atm.

variable RandomSeed equal 60 # The random seed for velocity
variable tstep equal 2.0      # 1fs
variable Ninptpre equal 10000 # Pre-initialize the NPT ensemble (very small timesteps)
variable Ninpt equal 10000000  # Initialize the NPT ensemble
variable Npnpt equal 10000000  # Production in the NPT ensemble (volume)
variable Ninvtpre equal 10000 # Pre-initialize the NVT ensemble (very small timesteps)
variable Ninvt equal 500000   # Initialize the NVT ensemble
variable Nrun equal 50000     # production in the NVT ensemble (Transport properties) 1ns
variable Nf equal 1000         # Nfreq (fix ave/time and thermo)
variable Ne equal  1         # Nevery (fix ave/time)
variable Nr equal 1000/1
variable NBR equal 10000000/100
variable Nd equal 50000/10

variable nb equal 10          # Number of blocks (fix ordern)
variable nbe equal 20         # Number of block elements (fix ordern)
variable Nvisc equal 5        # Nevery for viscosity (fix ordern: sample data at (Nvisc*2))
variable Ncond equal 5        # Nevery for Tconductivity (fix ordern: sample data at (Ncond*2))
variable Ndiff equal 1000     # Nevery for diffusivity (fix ordern: sample data at (Ndiff))
variable Nwrit equal 100000   # Nwrite for transport properties (fix ordern: write every (Nwrit))

variable Nrdfe equal 1000     # Nevery for RDF (fix ave/time)
variable Nrdfw equal 1000     # Nwrite for RDF (compute rdf/ext: write every (Nrdfw*Nrdfe))
variable binnum equal 2000    # Number of bins for RDF

#################### ATOM DEFINITION and FORCEFIELD ####################
read_data ./data.lmp                     # read the positions
Reading data file ...
  orthogonal box = (0 0 0) to (32.73665 32.73665 32.73665)
  reading atoms ...
  3486 atoms
  scanning bonds ...
  scanning angles ...
  reading bonds ...
  2324 bonds
  reading angles ...
  1324 angles
Finding 1-2 1-3 1-4 neighbors ...
     4 = max # of 1-2 neighbors
     3 = max # of 1-3 neighbors
     3 = max # of 1-4 neighbors
     4 = max # of special neighbors
include ./forcefield.data                # read the force field
#--------INTERMOLECULAR POTENTIAL -------------------#
# ---------------Developed for Li2SO4 in water (tip4p/2005) system-----#

mass 1 15.9994 # Ow
mass 2 1.008 # Hw
mass 3 6.891  # Li  -0.01, which went to ghost
mass 4 0.05 # m ghost of lithium
mass 5 0.1 # S  Center site without weight
mass 6 23.99065 # Os (added sulfur weight)

pair_style lj/cut/tip4p/long 1 2 1 1 0.1546 10.0
kspace_style pppm/tip4p 1.0e-5
pair_modify mix arithmetic tail yes # ATC and Lorentz-Berthelot combining rules

#-----------------Combinations----------------------------
# atomtype atomtype epsilon sigma

pair_coeff 1 1 0.185200 3.1589     # Ow-Ow
pair_coeff 1 2 0.000000 0.0000     # Ow-Hw
pair_coeff 1 3 0.167459 2.12       # Ow-Li
pair_coeff 1 4 0.000000 0.0000     # Ow-m
pair_coeff 1 5 0.215246 3.35445    # Ow-S  COMPUTE BY HAND LB mix
pair_coeff 1 6 0.150335 3.40445    # Ow-Os

pair_coeff 2 2 0.000000 0.0000     # Hw-Hw
pair_coeff 2 3 0.000000 0.0000     # Hw-Li
pair_coeff 2 4 0.000000 0.0000     # Hw-m
pair_coeff 2 5 0.000000 0.0000     # Hw-S
pair_coeff 2 6 0.000000 0.0000     # Hw-Os

pair_coeff 3 3 0.103989 1.4397     # Li-Li
pair_coeff 3 4 0.000000 0.0000     # Li-m
pair_coeff 3 5 0.161291 2.49485    # Li-S   COMPUTE BY HAND LB mix
pair_coeff 3 6 0.192067 2.844850   # Li-Os

pair_coeff 4 4 0.000000 0.0000     # m-m
pair_coeff 4 5 0.000000 0.0000     # m-S
pair_coeff 4 6 0.000000 0.0000     # m-Os

pair_coeff 5 5 0.250167 3.5500     # S-S
pair_coeff 5 6 0.223762 3.6000     # S-Os  CHECK BY HAND LB mix

pair_coeff 6 6 0.200143 3.6500     # Os-Os

bond_style  harmonic
bond_coeff 1 2000 0.9572           # Ow-Hw
bond_coeff 2 1000 0.5		   # Li-m
bond_coeff 3 1000 1.490		   # S-Os

angle_style harmonic
angle_coeff 1 200 104.52           # H-Ow-H
angle_coeff 2 200 109.5           # Os-S-Os

#dihedral_style none
#improper_style none

set type 1 charge -1.1128          # O
Setting atom values ...
  1000 settings made for charge
set type 2 charge +0.5564          # OH
Setting atom values ...
  2000 settings made for charge
set type 3 charge +0.8500          # Li
Setting atom values ...
  108 settings made for charge
set type 4 charge 0		   # m
Setting atom values ...
  108 settings made for charge
set type 5 charge +0.9000          # S
Setting atom values ...
  54 settings made for charge
set type 6 charge -0.6500          # Os
Setting atom values ...
  216 settings made for charge

#################### INITIALIZATION ####################
# groups for the central atoms of water (O)

group wat type 1		# O water
1000 atoms in group wat
group Li type 3			# Lithium atom
108 atoms in group Li
group S type 5			# S sulfite group centre
54 atoms in group S

# neigbor lists
neighbor 2.0 bin
neigh_modify every 1 delay 0 check yes

# velocity-Verlet integrator
run_style verlet

# initializing velocities
velocity all create 323.15 60

# rate of writing thermal properties to the log file
thermo_style custom step density temp press etotal
thermo_modify flush yes
thermo 1000

#################### 2) Initialize the NPT ensemble ####################
######### Go to the correct temperature now ant initiate that ##########
fix integrate all rigid/npt/small molecule temp 323.15 323.15 10.0 iso 1 1 100.0
  1162 rigid bodies with 3486 atoms
  1.4900075 = max distance from body owner to body atom

# add dump trajectory

# Initializing the whole system with very small timesteps in the NPT ensemble
timestep 0.001
run 10000
PPPM initialization ...
  extracting TIP4P info from pair style
  G vector (1/distance) = 0.30884801
  grid = 30 30 30
  stencil order = 5
  estimated absolute RMS force accuracy = 0.0040043444
  estimated relative force accuracy = 1.2058964e-05
  3d grid and FFT values/proc = 4950 960
Generated 0 of 15 mixed pair_coeff terms from arithmetic mixing rule
  update every 1 steps, delay 0 steps, check yes
Step        Density          Temp          Press          TotEng
0   1.1336932      324.66094     -3706292.8      8524.5543
Averages over the last 6 of 11 rows, steps 5000 to 10000:
Density Temp Press TotEng
1.07627 1621.14 44029.6 4438.86
Loop time of 27.8885 on 32 procs for 10000 steps with 3486 atoms

timestep 0.01
run 10000
PPPM initialization ...
  extracting TIP4P info from pair style
  G vector (1/distance) = 0.31154211
  grid = 32 32 32
  stencil order = 5
  estimated absolute RMS force accuracy = 0.0032517282
  estimated relative force accuracy = 9.7924828e-06
  3d grid and FFT values/proc = 5175 1024
Generated 0 of 15 mixed pair_coeff terms from arithmetic mixing rule
Step        Density          Temp          Press          TotEng
10000   1.0451228      2040.1788      11379.568      1878.6698
Averages over the last 6 of 11 rows, steps 15000 to 20000:
Density Temp Press TotEng
1.03597 623.946 -896.959 -21407.7
Loop time of 26.4485 on 32 procs for 10000 steps with 3486 atoms

timestep 0.1
run 10000
PPPM initialization ...
  extracting TIP4P info from pair style
  G vector (1/distance) = 0.30879564
  grid = 30 30 30
  stencil order = 5
  estimated absolute RMS force accuracy = 0.0040129736
  estimated relative force accuracy = 1.2084951e-05
  3d grid and FFT values/proc = 4950 960
Generated 0 of 15 mixed pair_coeff terms from arithmetic mixing rule
Step        Density          Temp          Press          TotEng
20000   1.1312425      547.38852      6649.157      -23598.487
Averages over the last 6 of 11 rows, steps 25000 to 30000:
Density Temp Press TotEng
1.20013 322.914 -380.55 -30010.4
Loop time of 29.8466 on 32 procs for 10000 steps with 3486 atoms

timestep 0.2
run 10000
PPPM initialization ...
  extracting TIP4P info from pair style
  G vector (1/distance) = 0.31033035
  grid = 30 30 30
  stencil order = 5
  estimated absolute RMS force accuracy = 0.0037670533
  estimated relative force accuracy = 1.1344369e-05
  3d grid and FFT values/proc = 4950 960
Generated 0 of 15 mixed pair_coeff terms from arithmetic mixing rule
Step        Density          Temp          Press          TotEng
30000   1.2055482      317.75765      3205.2269     -30183.152
Averages over the last 6 of 11 rows, steps 35000 to 40000:
Density Temp Press TotEng
1.20126 320.894 -50.8598 -30434.1
Loop time of 30.0329 on 32 procs for 10000 steps with 3486 atoms

timestep 0.5
run 10000
PPPM initialization ...
  extracting TIP4P info from pair style
  G vector (1/distance) = 0.31025278
  grid = 30 30 30
  stencil order = 5
  estimated absolute RMS force accuracy = 0.0037791403
  estimated relative force accuracy = 1.1380769e-05
  3d grid and FFT values/proc = 4950 960
Generated 0 of 15 mixed pair_coeff terms from arithmetic mixing rule
Step        Density          Temp          Press          TotEng
40000   1.2016667      311.41139      2461.1545     -30532.894
Averages over the last 6 of 11 rows, steps 45000 to 50000:
Density Temp Press TotEng
1.19983 321.767 -522.627 -30565.2
Loop time of 31.3047 on 32 procs for 10000 steps with 3486 atoms

reset_timestep 0

# continuing the initialization with the final value of timestep
unfix integrate
fix integrate all rigid/npt/small molecule temp 323.15 323.15 100.0 iso 1 1 1000.0
  1162 rigid bodies with 3486 atoms
  1.490342 = max distance from body owner to body atom

timestep 2
run 10000000
PPPM initialization ...
  extracting TIP4P info from pair style
  G vector (1/distance) = 0.31029349
  grid = 30 30 30
  stencil order = 5
  estimated absolute RMS force accuracy = 0.0037727928
  estimated relative force accuracy = 1.1361653e-05
  3d grid and FFT values/proc = 4950 960
Generated 0 of 15 mixed pair_coeff terms from arithmetic mixing rule
Step        Density          Temp          Press          TotEng
0   1.203702       323.58074      318.59203     -30569.786
Averages over the last 5001 of 10001 rows, steps 5000000 to 10000000:
Density Temp Press TotEng
1.20102 321.171 6.05642 -30681.9
Loop time of 34327.3 on 32 procs for 10000000 steps with 3486 atoms

reset_timestep 0

#################### 3) Obtaining average volume in NPT ######################
# Creating restart files
restart 1000 1.restart 2.restart

# Getting the average volume of the system
variable Volume equal vol
fix VoluAve all ave/time 1 10000000 10000000 v_Volume file volume.dat

variable Dens equal density
fix DensAve all ave/time 1 100000 100000 v_Dens file density.dat

compute T1 all temp
fix TempAve1 all ave/time 1 100000 100000 c_T1 file temperatureNPT.dat

compute P1 all pressure T1
fix PressAve1 all ave/time 1 100000 100000 c_P1 file pressureNPT.dat

run 10000000
PPPM initialization ...
  extracting TIP4P info from pair style
  G vector (1/distance) = 0.31039539
  grid = 30 30 30
  stencil order = 5
  estimated absolute RMS force accuracy = 0.0037569443
  estimated relative force accuracy = 1.1313926e-05
  3d grid and FFT values/proc = 4950 960
Generated 0 of 15 mixed pair_coeff terms from arithmetic mixing rule
Step        Density          Temp          Press          TotEng
0   1.208814       308.96699      3239.0971     -30817.314
Averages over the last 5001 of 10001 rows, steps 5000000 to 10000000:
Density Temp Press TotEng
1.20095 321.064 9.3818 -30685.6
Loop time of 34892.7 on 32 procs for 10000000 steps with 3486 atoms

#################### 4) Initializing the NVT ensemble ####################
# scaling the size of the system to the average volume
variable sidesize equal (f_VoluAve^(1.0/3.0))    # get the volume
variable xlow equal xlo
variable ylow equal ylo
variable zlow equal zlo
variable xhig equal (xlo+32.115248366704)
variable yhig equal (ylo+32.115248366704)
variable zhig equal (zlo+32.115248366704)
change_box all x final 0.299754525965724 32.4150028926697 y final 0.299754525965724 32.4150028926697 z final 0.299754525965724 32.4150028926697
Changing box ...
  orthogonal box = (0.29975453 0.29975453 0.29975453) to (32.415003 32.436895 32.436895)
  orthogonal box = (0.29975453 0.29975453 0.29975453) to (32.415003 32.415003 32.436895)
  orthogonal box = (0.29975453 0.29975453 0.29975453) to (32.415003 32.415003 32.415003)
unfix DensAve
unfix VoluAve
unfix TempAve1
unfix PressAve1

# changing the ensemble to NVT
unfix integrate
fix integrate all rigid/nvt/small molecule temp 323.15 323.15 10.0
  1162 rigid bodies with 3486 atoms
  1.4903179 = max distance from body owner to body atom

timestep 0.001
run 10000
PPPM initialization ...
  extracting TIP4P info from pair style
  G vector (1/distance) = 0.31023508
  grid = 30 30 30
  stencil order = 5
  estimated absolute RMS force accuracy = 0.0037819045
  estimated relative force accuracy = 1.1389093e-05
  3d grid and FFT values/proc = 4950 960
Generated 0 of 15 mixed pair_coeff terms from arithmetic mixing rule
Step        Density          Temp          Press          TotEng
10000000   1.2007826      321.67466      2768.7538     -30551.524
Averages over the last 6 of 11 rows, steps 10005000 to 10010000:
Density Temp Press TotEng
1.20078 326.011 100.21 -30552.9
Loop time of 23.7369 on 32 procs for 10000 steps with 3486 atoms

timestep 0.01
run 10000
PPPM initialization ...
  extracting TIP4P info from pair style
  G vector (1/distance) = 0.31023508
  grid = 30 30 30
  stencil order = 5
  estimated absolute RMS force accuracy = 0.0037819045
  estimated relative force accuracy = 1.1389093e-05
  3d grid and FFT values/proc = 4950 960
Generated 0 of 15 mixed pair_coeff terms from arithmetic mixing rule
Step        Density          Temp          Press          TotEng
10010000   1.2007826      325.94872      2992.3877     -30556.303
Averages over the last 6 of 11 rows, steps 10015000 to 10020000:
Density Temp Press TotEng
1.20078 324.11 -449.391 -30607.7
Loop time of 23.1058 on 32 procs for 10000 steps with 3486 atoms

timestep 0.1
run 10000
PPPM initialization ...
  extracting TIP4P info from pair style
  G vector (1/distance) = 0.31023508
  grid = 30 30 30
  stencil order = 5
  estimated absolute RMS force accuracy = 0.0037819045
  estimated relative force accuracy = 1.1389093e-05
  3d grid and FFT values/proc = 4950 960
Generated 0 of 15 mixed pair_coeff terms from arithmetic mixing rule
Step        Density          Temp          Press          TotEng
10020000   1.2007826      322.00839      4226.1805     -30600.515
Averages over the last 6 of 11 rows, steps 10025000 to 10030000:
Density Temp Press TotEng
1.20078 323.173 -13.069 -30606.8
Loop time of 23.8193 on 32 procs for 10000 steps with 3486 atoms

timestep 0.2
run 10000
PPPM initialization ...
  extracting TIP4P info from pair style
  G vector (1/distance) = 0.31023508
  grid = 30 30 30
  stencil order = 5
  estimated absolute RMS force accuracy = 0.0037819045
  estimated relative force accuracy = 1.1389093e-05
  3d grid and FFT values/proc = 4950 960
Generated 0 of 15 mixed pair_coeff terms from arithmetic mixing rule
Step        Density          Temp          Press          TotEng
10030000   1.2007826      320.95637      2215.8533     -30638.618
Averages over the last 6 of 11 rows, steps 10035000 to 10040000:
Density Temp Press TotEng
1.20078 327.046 -88.8315 -30522
Loop time of 26.5858 on 32 procs for 10000 steps with 3486 atoms

timestep 0.5
run 10000
PPPM initialization ...
  extracting TIP4P info from pair style
  G vector (1/distance) = 0.31023508
  grid = 30 30 30
  stencil order = 5
  estimated absolute RMS force accuracy = 0.0037819045
  estimated relative force accuracy = 1.1389093e-05
  3d grid and FFT values/proc = 4950 960
Generated 0 of 15 mixed pair_coeff terms from arithmetic mixing rule
Step        Density          Temp          Press          TotEng
10040000   1.2007826      322.19376      2473.8854     -30538.319
Averages over the last 6 of 11 rows, steps 10045000 to 10050000:
Density Temp Press TotEng
1.20078 321.01 141.761 -30621.2
Loop time of 24.9744 on 32 procs for 10000 steps with 3486 atoms

unfix integrate
fix integrate all rigid/nvt/small molecule temp 323.15 323.15 100.0
  1162 rigid bodies with 3486 atoms
  1.4903179 = max distance from body owner to body atom
# continuing the initialization with the final value of timestep
timestep 2
run 500000
PPPM initialization ...
  extracting TIP4P info from pair style
  G vector (1/distance) = 0.31023508
  grid = 30 30 30
  stencil order = 5
  estimated absolute RMS force accuracy = 0.0037819045
  estimated relative force accuracy = 1.1389093e-05
  3d grid and FFT values/proc = 4950 960
Generated 0 of 15 mixed pair_coeff terms from arithmetic mixing rule
Step        Density          Temp          Press          TotEng
10050000   1.2007826      327.79791     -105.16537     -30570.679
Averages over the last 251 of 501 rows, steps 10300000 to 10550000:
Density Temp Press TotEng
1.20078 320.701 32.126 -30616.1
Loop time of 1477.73 on 32 procs for 500000 steps with 3486 atoms

quit
