LAMMPS (23 Jun 2022 - Update 1)
####################################################
# Preprocessing Li2SO4 in water
# 1m 298 K and 1 atm
#################### SETTING UP ####################
units real
dimension 3
newton on
boundary p p p
atom_style full

#################### VARIABLES ####################
variable Temp equal 298.15    # Temperature in K
variable Pres equal 1.0       # Pressure in atm.

variable RandomSeed equal 51 # The random seed for velocity
variable tstep equal 1.0      # 1fs
variable Ninptpre equal 10000 # Pre-initialize the NPT ensemble (very small timesteps)
variable Ninpt equal 10000000  # Initialize the NPT ensemble
variable Npnpt equal 10000000  # Production in the NPT ensemble (volume)
variable Ninvtpre equal 10000 # Pre-initialize the NVT ensemble (very small timesteps)
variable Ninvt equal 500000   # Initialize the NVT ensemble
variable Nrun equal 50000     # production in the NVT ensemble (Transport properties) 1ns
variable Nf equal 1000         # Nfreq (fix ave/time and thermo)
variable Ne equal  1         # Nevery (fix ave/time)
variable Nr equal 1000/1
variable NBR equal 10000000/100
variable Nd equal 50000/10

variable nb equal 10          # Number of blocks (fix ordern)
variable nbe equal 20         # Number of block elements (fix ordern)
variable Nvisc equal 5        # Nevery for viscosity (fix ordern: sample data at (Nvisc*2))
variable Ncond equal 5        # Nevery for Tconductivity (fix ordern: sample data at (Ncond*2))
variable Ndiff equal 1000     # Nevery for diffusivity (fix ordern: sample data at (Ndiff))
variable Nwrit equal 100000   # Nwrite for transport properties (fix ordern: write every (Nwrit))

variable Nrdfe equal 1000     # Nevery for RDF (fix ave/time)
variable Nrdfw equal 1000     # Nwrite for RDF (compute rdf/ext: write every (Nrdfw*Nrdfe))
variable binnum equal 2000    # Number of bins for RDF

#################### ATOM DEFINITION and FORCEFIELD ####################
read_data ./data.lmp                     # read the positions
Reading data file ...
  orthogonal box = (0 0 0) to (31.689281 31.689281 31.689281)
  reading atoms ...
  3162 atoms
  scanning bonds ...
  scanning angles ...
  reading bonds ...
  2108 bonds
  reading angles ...
  1108 angles
Finding 1-2 1-3 1-4 neighbors ...
     4 = max # of 1-2 neighbors
     3 = max # of 1-3 neighbors
     3 = max # of 1-4 neighbors
     4 = max # of special neighbors
include ./forcefield.data                # read the force field
#--------INTERMOLECULAR POTENTIAL -------------------#
# ---------------Developed for Li2SO4 in water (tip4p/2005) system-----#

mass 1 15.9994 # Ow
mass 2 1.008 # Hw
mass 3 6.891  # Li  -0.01, which went to ghost
mass 4 0.05 # m ghost of lithium
mass 5 0.1 # S  Center site without weight
mass 6 23.99065 # Os (added sulfur weight)

pair_style lj/cut/tip4p/long 1 2 1 1 0.1546 10.0
kspace_style pppm/tip4p 1.0e-5
pair_modify mix arithmetic tail yes # ATC and Lorentz-Berthelot combining rules

#-----------------Combinations----------------------------
# atomtype atomtype epsilon sigma

pair_coeff 1 1 0.185200 3.1589     # Ow-Ow
pair_coeff 1 2 0.000000 0.0000     # Ow-Hw
pair_coeff 1 3 0.167459 2.12       # Ow-Li
pair_coeff 1 4 0.000000 0.0000     # Ow-m
pair_coeff 1 5 0.215246 3.35445    # Ow-S  COMPUTE BY HAND LB mix
pair_coeff 1 6 0.150335 3.40445    # Ow-Os

pair_coeff 2 2 0.000000 0.0000     # Hw-Hw
pair_coeff 2 3 0.000000 0.0000     # Hw-Li
pair_coeff 2 4 0.000000 0.0000     # Hw-m
pair_coeff 2 5 0.000000 0.0000     # Hw-S
pair_coeff 2 6 0.000000 0.0000     # Hw-Os

pair_coeff 3 3 0.103989 1.4397     # Li-Li
pair_coeff 3 4 0.000000 0.0000     # Li-m
pair_coeff 3 5 0.161291 2.49485    # Li-S   COMPUTE BY HAND LB mix
pair_coeff 3 6 0.192067 2.844850   # Li-Os

pair_coeff 4 4 0.000000 0.0000     # m-m
pair_coeff 4 5 0.000000 0.0000     # m-S
pair_coeff 4 6 0.000000 0.0000     # m-Os

pair_coeff 5 5 0.250167 3.5500     # S-S
pair_coeff 5 6 0.223762 3.6000     # S-Os  CHECK BY HAND LB mix

pair_coeff 6 6 0.200143 3.6500     # Os-Os

bond_style  harmonic
bond_coeff 1 2000 0.9572           # Ow-Hw
bond_coeff 2 1000 0.5		   # Li-m
bond_coeff 3 1000 1.490		   # S-Os

angle_style harmonic
angle_coeff 1 200 104.52           # H-Ow-H
angle_coeff 2 200 109.5           # Os-S-Os

#dihedral_style none
#improper_style none

set type 1 charge -1.1128          # O
Setting atom values ...
  1000 settings made for charge
set type 2 charge +0.5564          # OH
Setting atom values ...
  2000 settings made for charge
set type 3 charge +0.8500          # Li
Setting atom values ...
  36 settings made for charge
set type 4 charge 0		   # m
Setting atom values ...
  36 settings made for charge
set type 5 charge +0.9000          # S
Setting atom values ...
  18 settings made for charge
set type 6 charge -0.6500          # Os
Setting atom values ...
  72 settings made for charge

#################### INITIALIZATION ####################
# groups for the central atoms of water (O)

group wat type 1		# O water
1000 atoms in group wat
group Li type 3			# Lithium atom
36 atoms in group Li
group S type 5			# S sulfite group centre
18 atoms in group S

# neigbor lists
neighbor 2.0 bin
neigh_modify every 1 delay 0 check yes

# velocity-Verlet integrator
run_style verlet

# initializing velocities
velocity all create 298.15 51

# rate of writing thermal properties to the log file
thermo_style custom step density temp press etotal
thermo_modify flush yes
thermo 1000

#################### 2) Initialize the NPT ensemble ####################
######### Go to the correct temperature now ant initiate that ##########
fix integrate all rigid/npt/small molecule temp 298.15 298.15 10.0 iso 1 1 100.0
  1054 rigid bodies with 3162 atoms
  1.4900082 = max distance from body owner to body atom

# add dump trajectory

# Initializing the whole system with very small timesteps in the NPT ensemble
timestep 0.001
run 10000
PPPM initialization ...
  extracting TIP4P info from pair style
  G vector (1/distance) = 0.31119582
  grid = 30 30 30
  stencil order = 5
  estimated absolute RMS force accuracy = 0.0035544154
  estimated relative force accuracy = 1.0704016e-05
  3d grid and FFT values/proc = 5610 1800
Generated 0 of 15 mixed pair_coeff terms from arithmetic mixing rule
  update every 1 steps, delay 0 steps, check yes
Step        Density          Temp          Press          TotEng
0   1.0433267      296.42968      5630412.9      5936.4457
Averages over the last 6 of 11 rows, steps 5000 to 10000:
Density Temp Press TotEng
1.00626 1011.92 33919.5 4227.77
Loop time of 32.9295 on 24 procs for 10000 steps with 3162 atoms

timestep 0.01
run 10000
PPPM initialization ...
  extracting TIP4P info from pair style
  G vector (1/distance) = 0.30981411
  grid = 30 30 30
  stencil order = 5
  estimated absolute RMS force accuracy = 0.0037633449
  estimated relative force accuracy = 1.1333201e-05
  3d grid and FFT values/proc = 5610 1800
Generated 0 of 15 mixed pair_coeff terms from arithmetic mixing rule
Step        Density          Temp          Press          TotEng
10000   0.98500549     1298.2272      7068.2444      3053.9495
Averages over the last 6 of 11 rows, steps 15000 to 20000:
Density Temp Press TotEng
0.948379 491.188 -2323.62 -10660.8
Loop time of 30.4128 on 24 procs for 10000 steps with 3162 atoms

timestep 0.1
run 10000
PPPM initialization ...
  extracting TIP4P info from pair style
  G vector (1/distance) = 0.31115249
  grid = 30 30 30
  stencil order = 5
  estimated absolute RMS force accuracy = 0.0035608012
  estimated relative force accuracy = 1.0723247e-05
  3d grid and FFT values/proc = 5610 1800
Generated 0 of 15 mixed pair_coeff terms from arithmetic mixing rule
Step        Density          Temp          Press          TotEng
20000   1.041441       450.11621      2424.2485     -12107.543
Averages over the last 6 of 11 rows, steps 25000 to 30000:
Density Temp Press TotEng
1.10154 296.114 137.175 -16543.4
Loop time of 35.6906 on 24 procs for 10000 steps with 3162 atoms

timestep 0.2
run 10000
PPPM initialization ...
  extracting TIP4P info from pair style
  G vector (1/distance) = 0.3122748
  grid = 30 30 30
  stencil order = 5
  estimated absolute RMS force accuracy = 0.0033987273
  estimated relative force accuracy = 1.0235166e-05
  3d grid and FFT values/proc = 5610 1800
Generated 0 of 15 mixed pair_coeff terms from arithmetic mixing rule
Step        Density          Temp          Press          TotEng
30000   1.0915382      296.7889       5804.3274     -16602.905
Averages over the last 6 of 11 rows, steps 35000 to 40000:
Density Temp Press TotEng
1.08722 297.805 -198.572 -16748
Loop time of 34.9056 on 24 procs for 10000 steps with 3162 atoms

timestep 0.5
run 10000
PPPM initialization ...
  extracting TIP4P info from pair style
  G vector (1/distance) = 0.31205195
  grid = 30 30 30
  stencil order = 5
  estimated absolute RMS force accuracy = 0.0034303613
  estimated relative force accuracy = 1.0330431e-05
  3d grid and FFT values/proc = 5610 1800
Generated 0 of 15 mixed pair_coeff terms from arithmetic mixing rule
Step        Density          Temp          Press          TotEng
40000   1.0813807      295.51792     -840.33478     -16771.427
Averages over the last 6 of 11 rows, steps 45000 to 50000:
Density Temp Press TotEng
1.08172 299.406 1.16432 -16779
Loop time of 36.1072 on 24 procs for 10000 steps with 3162 atoms

reset_timestep 0

# continuing the initialization with the final value of timestep
unfix integrate
fix integrate all rigid/npt/small molecule temp 298.15 298.15 100.0 iso 1 1 1000.0
  1054 rigid bodies with 3162 atoms
  1.4901311 = max distance from body owner to body atom

timestep 1
run 10000000
PPPM initialization ...
  extracting TIP4P info from pair style
  G vector (1/distance) = 0.31199525
  grid = 30 30 30
  stencil order = 5
  estimated absolute RMS force accuracy = 0.0034384516
  estimated relative force accuracy = 1.0354795e-05
  3d grid and FFT values/proc = 5610 1800
Generated 0 of 15 mixed pair_coeff terms from arithmetic mixing rule
Step        Density          Temp          Press          TotEng
0   1.0788136      296.59264      2467.5425     -16835.598
Averages over the last 5001 of 10001 rows, steps 5000000 to 10000000:
Density Temp Press TotEng
1.08053 297.729 -0.483196 -16817.5
Loop time of 36474.7 on 24 procs for 10000000 steps with 3162 atoms

reset_timestep 0

#################### 3) Obtaining average volume in NPT ######################
# Creating restart files
restart 1000 1.restart 2.restart

# Getting the average volume of the system
variable Volume equal vol
fix VoluAve all ave/time 1 10000000 10000000 v_Volume file volume.dat

variable Dens equal density
fix DensAve all ave/time 1 100000 100000 v_Dens file density.dat

compute T1 all temp
fix TempAve1 all ave/time 1 100000 100000 c_T1 file temperatureNPT.dat

compute P1 all pressure T1
fix PressAve1 all ave/time 1 100000 100000 c_P1 file pressureNPT.dat

run 10000000
PPPM initialization ...
  extracting TIP4P info from pair style
  G vector (1/distance) = 0.31212667
  grid = 30 30 30
  stencil order = 5
  estimated absolute RMS force accuracy = 0.0034197239
  estimated relative force accuracy = 1.0298397e-05
  3d grid and FFT values/proc = 5610 1800
Generated 0 of 15 mixed pair_coeff terms from arithmetic mixing rule
Step        Density          Temp          Press          TotEng
0   1.0847749      302.46435     -183.2035      -16744.631
Averages over the last 5001 of 10001 rows, steps 5000000 to 10000000:
Density Temp Press TotEng
1.08002 297.764 0.417281 -16816.6
Loop time of 42292.1 on 24 procs for 10000000 steps with 3162 atoms

#################### 4) Initializing the NVT ensemble ####################
# scaling the size of the system to the average volume
variable sidesize equal (f_VoluAve^(1.0/3.0))    # get the volume
variable xlow equal xlo
variable ylow equal ylo
variable zlow equal zlo
variable xhig equal (xlo+31.3247123544677)
variable yhig equal (ylo+31.3247123544677)
variable zhig equal (zlo+31.3247123544677)
change_box all x final 0.161581652703704 31.4862940071714 y final 0.161581652703704 31.4862940071714 z final 0.161581652703704 31.4862940071714
Changing box ...
  orthogonal box = (0.16158165 0.16158165 0.16158165) to (31.486294 31.527699 31.527699)
  orthogonal box = (0.16158165 0.16158165 0.16158165) to (31.486294 31.486294 31.527699)
  orthogonal box = (0.16158165 0.16158165 0.16158165) to (31.486294 31.486294 31.486294)
unfix DensAve
unfix VoluAve
unfix TempAve1
unfix PressAve1

# changing the ensemble to NVT
unfix integrate
fix integrate all rigid/nvt/small molecule temp 298.15 298.15 10.0
  1054 rigid bodies with 3162 atoms
  1.4901261 = max distance from body owner to body atom

timestep 0.001
run 10000
PPPM initialization ...
  extracting TIP4P info from pair style
  G vector (1/distance) = 0.31202545
  grid = 30 30 30
  stencil order = 5
  estimated absolute RMS force accuracy = 0.0034341398
  estimated relative force accuracy = 1.034181e-05
  3d grid and FFT values/proc = 5610 1800
Generated 0 of 15 mixed pair_coeff terms from arithmetic mixing rule
Step        Density          Temp          Press          TotEng
10000000   1.0801802      302.09594      20282.075     -16605.958
Averages over the last 6 of 11 rows, steps 10005000 to 10010000:
Density Temp Press TotEng
1.08018 301.674 1333.38 -16622
Loop time of 26.4546 on 24 procs for 10000 steps with 3162 atoms

timestep 0.01
run 10000
PPPM initialization ...
  extracting TIP4P info from pair style
  G vector (1/distance) = 0.31202545
  grid = 30 30 30
  stencil order = 5
  estimated absolute RMS force accuracy = 0.0034341398
  estimated relative force accuracy = 1.034181e-05
  3d grid and FFT values/proc = 5610 1800
Generated 0 of 15 mixed pair_coeff terms from arithmetic mixing rule
Step        Density          Temp          Press          TotEng
10010000   1.0801802      300.072        6278.6652     -16634.138
Averages over the last 6 of 11 rows, steps 10015000 to 10020000:
Density Temp Press TotEng
1.08018 297.798 475.063 -16611.9
Loop time of 26.6436 on 24 procs for 10000 steps with 3162 atoms

timestep 0.1
run 10000
PPPM initialization ...
  extracting TIP4P info from pair style
  G vector (1/distance) = 0.31202545
  grid = 30 30 30
  stencil order = 5
  estimated absolute RMS force accuracy = 0.0034341398
  estimated relative force accuracy = 1.034181e-05
  3d grid and FFT values/proc = 5610 1800
Generated 0 of 15 mixed pair_coeff terms from arithmetic mixing rule
Step        Density          Temp          Press          TotEng
10020000   1.0801802      299.16042      2271.2163     -16607.61
Averages over the last 6 of 11 rows, steps 10025000 to 10030000:
Density Temp Press TotEng
1.08018 297.684 91.3728 -16639.5
Loop time of 25.6328 on 24 procs for 10000 steps with 3162 atoms

timestep 0.2
run 10000
PPPM initialization ...
  extracting TIP4P info from pair style
  G vector (1/distance) = 0.31202545
  grid = 30 30 30
  stencil order = 5
  estimated absolute RMS force accuracy = 0.0034341398
  estimated relative force accuracy = 1.034181e-05
  3d grid and FFT values/proc = 5610 1800
Generated 0 of 15 mixed pair_coeff terms from arithmetic mixing rule
Step        Density          Temp          Press          TotEng
10030000   1.0801802      293.87857      991.13014     -16665.243
Averages over the last 6 of 11 rows, steps 10035000 to 10040000:
Density Temp Press TotEng
1.08018 297.559 205.908 -16569.9
Loop time of 29.5802 on 24 procs for 10000 steps with 3162 atoms

timestep 0.5
run 10000
PPPM initialization ...
  extracting TIP4P info from pair style
  G vector (1/distance) = 0.31202545
  grid = 30 30 30
  stencil order = 5
  estimated absolute RMS force accuracy = 0.0034341398
  estimated relative force accuracy = 1.034181e-05
  3d grid and FFT values/proc = 5610 1800
Generated 0 of 15 mixed pair_coeff terms from arithmetic mixing rule
Step        Density          Temp          Press          TotEng
10040000   1.0801802      297.86341      445.22376     -16573.182
Averages over the last 6 of 11 rows, steps 10045000 to 10050000:
Density Temp Press TotEng
1.08018 297.897 -48.5776 -16609.1
Loop time of 26.9784 on 24 procs for 10000 steps with 3162 atoms

unfix integrate
fix integrate all rigid/nvt/small molecule temp 298.15 298.15 100.0
  1054 rigid bodies with 3162 atoms
  1.4901261 = max distance from body owner to body atom
# continuing the initialization with the final value of timestep
timestep 1
run 500000
PPPM initialization ...
  extracting TIP4P info from pair style
  G vector (1/distance) = 0.31202545
  grid = 30 30 30
  stencil order = 5
  estimated absolute RMS force accuracy = 0.0034341398
  estimated relative force accuracy = 1.034181e-05
  3d grid and FFT values/proc = 5610 1800
Generated 0 of 15 mixed pair_coeff terms from arithmetic mixing rule
Step        Density          Temp          Press          TotEng
10050000   1.0801802      299.83922     -814.33115     -16630.722
Averages over the last 251 of 501 rows, steps 10300000 to 10550000:
Density Temp Press TotEng
1.08018 297.527 16.4228 -16594.1
Loop time of 1499.08 on 24 procs for 500000 steps with 3162 atoms

quit
